257
TITL mad25 in P2(1)/n
Au         1.16516       18.59691       23.42214
Cl        -0.36401       20.14594       23.90940
C          2.45153       17.16373       23.07015
N          2.27061       15.82054       23.17754
C          3.38777       15.11438       22.75792
H          3.48778       14.17003       22.72907
C          4.29255       16.02503       22.40274
H          5.16841       15.85271       22.07768
N          3.71540       17.27459       22.59700
C          1.03873       15.23808       23.65326
C          0.85606       15.08011       25.02913
C         -0.30183       14.46375       25.46382
H         -0.43343       14.32494       26.39442
C         -1.28367       14.04021       24.56335
C         -1.09066       14.26788       23.21249
H         -1.76789       14.00920       22.59860
C          0.06669       14.86451       22.73035
C          1.95121       15.53333       26.00750
H          2.28472       16.40913       25.65872
C         -2.49276       13.31204       25.05894
H         -2.45709       13.24675       26.03603
H         -3.29986       13.80049       24.79352
H         -2.51353       12.41211       24.67170
C          0.30197       15.06843       21.23556
H          0.94933       15.82686       21.15894
C          4.33073       18.54713       22.31650
C          4.10916       19.11619       21.05412
C          4.64288       20.36958       20.82235
H          4.49780       20.77838       19.97734
C          5.37520       21.04759       21.76705
C          5.54257       20.45785       23.01277
H          6.02227       20.93060       23.68276
C          5.03285       19.19891       23.31507
C          3.35378       18.34149       19.97157
H          2.95373       17.54687       20.42869
C          5.96051       22.39135       21.47823
H          6.44468       22.71322       22.26714
H          6.57889       22.32242       20.72105
H          5.24193       23.01996       21.25703
C          5.34428       18.51458       24.65888
H          4.93101       17.60546       24.60599
C          3.14918       14.59472       25.99179
C          4.39487       15.08528       26.33993
H          4.49937       16.00493       26.55438
C          5.47921       14.24701       26.37551
H          6.32739       14.60276       26.61305
C          5.37947       12.90975       26.07898
C          4.12105       12.43509       25.72668
H          4.01500       11.51716       25.50581
C          3.03234       13.26340       25.69110
H          2.18295       12.90975       25.45420
C          6.57464       12.02801       26.16041
C          7.78499       12.52278       25.74592
H          7.81481       13.38939       25.35739
C          8.94334       11.82199       25.86869
H          9.76874       12.19594       25.58275
C          8.89675       10.57913       26.40724
C          7.73240       10.02654       26.81468
H          7.71805        9.15150       27.18462
C          6.52390       10.77577       26.68197
H          5.69442       10.40202       26.95541
O         10.18606        9.99111       26.56368
C         10.06012        8.65462       27.00350
H         10.95093        8.25981       27.10800
H          9.59184        8.63682       27.86454
H          9.55013        8.14033       26.34345
C          1.40618       15.82035       27.40645
C          0.88340       17.05861       27.71227
H          0.88562       17.74370       27.05447
C          0.35955       17.31499       28.95510
H          0.00206       18.17567       29.13943
C          0.34039       16.34709       29.94757
C          0.88907       15.11094       29.64175
H          0.90365       14.42757       30.30148
C          1.41463       14.86164       28.38866
H          1.78951       14.00881       28.20305
C         -0.27238       16.62262       31.28561
C         -0.28530       17.88023       31.83346
H          0.13077       18.58887       31.35678
C         -0.88444       18.16227       33.06219
H         -0.91332       19.05224       33.39333
C         -1.42290       17.14554       33.77288
C         -1.42149       15.89234       33.25966
H         -1.81785       15.18178       33.75012
C         -0.84617       15.63749       32.02356
H         -0.85350       14.75020       31.68408
O         -2.05087       17.25085       35.01443
C         -2.35817       18.45829       35.52253
H         -2.79101       18.34551       36.39415
H         -1.53891       18.98541       35.63024
H         -2.96806       18.92357       34.91249
C          0.98651       13.86750       20.60020
C          1.56804       13.99790       19.35127
H          1.46756       14.81607       18.87908
C          2.29115       12.97255       18.76977
H          2.68125       13.10180       17.91321
C          2.45466       11.76072       19.41827
C          1.84165       11.63262       20.64604
H          1.91251       10.80315       21.10380
C          1.13051       12.65298       21.23972
H          0.73730       12.51972       22.09435
C          3.23379       10.64347       18.79124
C          3.29491       10.45352       17.45320
H          2.80488       11.04537       16.89446
C          4.03735        9.43641       16.84509
H          4.02441        9.32249       15.90198
C          4.76940        8.62418       17.62631
C          4.80643        8.83442       18.97621
H          5.36857        8.29619       19.52085
C          4.03533        9.82051       19.55483
H          4.05672        9.93539       20.49761
O          5.58714        7.63751       17.09449
C          5.48550        7.35643       15.71413
H          6.11607        6.64415       15.47852
H          4.57252        7.06635       15.50641
H          5.69688        8.16330       15.19995
C         -0.98319       15.53792       20.54217
C         -1.36690       16.85297       20.66303
H         -0.79577       17.45879       21.12047
C         -2.55111       17.31844       20.14211
H         -2.79002       18.22947       20.26713
C         -3.39941       16.48476       19.44007
C         -3.00543       15.17374       19.30415
H         -3.56868       14.57289       18.83067
C         -1.82222       14.70003       19.83052
H         -1.58126       13.78996       19.70325
C         -4.68173       17.01476       18.87748
C         -4.80778       18.34608       18.55851
H         -4.04790       18.90921       18.64795
C         -5.99912       18.90289       18.11068
H         -6.04988       19.82579       17.89174
C         -7.09523       18.09889       17.99175
C         -6.99835       16.75168       18.25333
H         -7.75112       16.18645       18.12639
C         -5.79490       16.21976       18.70469
H         -5.73891       15.29111       18.89735
O         -8.35149       18.55996       17.60996
C         -8.54562       19.95580       17.53014
H         -9.46679       20.14211       17.25221
H         -8.38122       20.35924       18.40785
H         -7.92375       20.33511       16.87458
C          4.29087       17.78851       18.91017
C          4.21424       16.47232       18.55082
H          3.59585       15.90881       19.00089
C          4.99587       15.94078       17.56764
H          4.87974       15.02611       17.33812
C          5.94146       16.67107       16.89670
C          6.04946       17.97769       17.31344
H          6.71687       18.52511       16.91690
C          5.24131       18.52683       18.27225
H          5.34569       19.44380       18.49825
C          6.81130       16.09339       15.83595
C          6.37673       15.06173       15.04319
H          5.51066       14.69716       15.18296
C          7.18718       14.54034       14.03533
H          6.83264       13.86904       13.46408
C          8.45561       14.95412       13.84267
C          8.87653       16.00608       14.57901
H          9.72768       16.39266       14.40943
C          8.07121       16.52248       15.57982
H          8.42329       17.22002       16.11997
O          9.33812       14.50320       12.86046
C          9.48163       13.29978       12.45494
H         10.17036       13.26991       11.75835
H          9.75218       12.73206       13.20635
H          8.63251       12.97504       12.08918
C          2.17102       19.15027       19.41218
C          1.47461       20.03929       20.19372
H          1.81842       20.26006       21.05123
C          0.29325       20.62520       19.78083
H         -0.15182       21.23696       20.35528
C         -0.24958       20.33377       18.54409
C          0.47325       19.46888       17.74588
H          0.14023       19.26343       16.88035
C          1.66128       18.88968       18.15332
H          2.12970       18.30932       17.56508
C         -1.55655       20.92811       18.10010
C         -2.55245       21.22240       19.00089
H         -2.39559       21.09029       19.92829
C         -3.77738       21.70702       18.58288
H         -4.45533       21.88854       19.22305
C         -4.02115       21.92665       17.26086
C         -3.04201       21.68941       16.35110
H         -3.19610       21.86461       15.43043
C         -1.80216       21.18487       16.77232
H         -1.12216       21.01848       16.12991
O         -5.27630       22.39537       16.94030
C         -5.51120       22.72413       15.59200
H         -6.43211       23.04313       15.48942
H         -4.88874       23.42818       15.31439
H         -5.37654       21.93009       15.03389
C          6.84543       18.28481       24.78743
C          7.73231       19.30077       25.07914
H          7.39415       20.17447       25.23686
C          9.08444       19.09130       25.14934
H          9.66652       19.82120       25.32533
C          9.60885       17.82144       24.96502
C          8.72414       16.80510       24.68228
H          9.06215       15.92853       24.54123
C          7.37091       17.01476       24.59733
H          6.79089       16.28678       24.40723
C         11.07049       17.55855       25.07241
C         11.98528       18.44067       24.55245
H         11.67688       19.22648       24.11648
C         13.35432       18.20937       24.64958
H         13.97261       18.82017       24.26619
C         13.79748       17.10112       25.29809
C         12.90841       16.26380       25.89017
H         13.21926       15.51935       26.39186
C         11.55036       16.49338       25.76419
H         10.93869       15.89119       26.17099
O         15.12281       16.77695       25.44619
C         16.07952       17.59838       24.82269
H         16.97750       17.25353       25.00990
H         15.92593       17.60201       23.85490
H         16.00158       18.51171       25.16954
C          4.71874       19.18857       25.87350
C          5.23721       18.93333       27.12852
H          6.02587       18.40984       27.20834
C          4.63651       19.42025       28.26300
H          5.01917       19.21729       29.10865
C          3.49337       20.19572       28.21588
C          2.96725       20.41687       26.96182
H          2.16036       20.91279       26.88585
C          3.56751       19.94527       25.81195
H          3.18242       20.14460       24.96662
C          2.85008       20.69987       29.46833
C          3.63098       21.08665       30.53517
H          4.57634       21.07937       30.44220
C          3.07316       21.48760       31.74563
H          3.63273       21.73651       32.47203
C          1.71554       21.51995       31.87994
C          0.93027       21.21513       30.80220
H         -0.01422       21.28521       30.87465
C          1.49421       20.80767       29.61098
H          0.92997       20.59762       28.87624
O          1.06794       21.87686       33.04808
C          1.86465       22.27034       34.13993
H          1.28873       22.49609       34.90031
H          2.46224       21.53489       34.38997
H          2.39755       23.05385       33.88989
C          6.00152       24.48053       25.75617
H          5.78813       24.58564       24.79512
H          5.58973       25.24336       26.23446
C          7.33620       24.56784       25.90011
H          7.56886       24.48282       26.85860
H          7.64211       25.45666       25.58916
Cl         5.24828       23.01920       26.32005
Cl         8.16608       23.31158       24.98457
C         12.24490        3.02089       27.61449
H         12.27948        2.07539       27.90621
H         13.02848        3.48119       28.00719
C         11.15746        3.56486       28.10624
H         11.12796        3.36171       29.07467
H         10.37936        3.11605       27.68983
Cl        12.39636        3.06531       25.87030
Cl        10.94532        5.29770       27.91358
